samples/ieee14.cdf
CASE14  IEEE 14 BUS TEST SYSTEM                              100.00   /Fictional Case  /00/ B.P. 450.
BUS DATA FOLLOWS                                
    1 BUS1        1  230.00    1  20 2 1.06000   0.0000      0.00      0.00      0.00      0.00   1.060   0.940    232.400    -16.900   216.200     12.700
    2 BUS2        1  230.00    1  20 2 1.04500  -4.9826     21.700     12.700      0.00      0.00   1.060   0.940     40.000     42.400     50.000    -40.000
    3 BUS3        1  230.00    1  20 2 1.01000 -12.7253     94.200     19.000      0.00      0.00   1.060   0.940      0.000     24.600     40.000      0.000
    4 BUS4        1  230.00    1  20 0 1.01900 -10.3285     47.800     -3.900      0.00      0.00   1.060   0.940      0.000      0.000      0.000      0.000
    5 BUS5        1  230.00    1  20 2 1.02000  -8.7690      7.600      1.600      0.00      0.00   1.060   0.940      0.000      0.000      0.000      0.000
    6 BUS6        2   11.000    2  20 2 1.07000 -14.2210     11.200      7.500      0.00      0.00   1.060   0.940      0.000     12.700     24.000     -6.000
    7 BUS7        1  230.00    1  20 0 1.06150 -13.3604      0.000      0.000     0.00      0.00   1.060   0.940      0.000      0.000      0.000      0.000
    8 BUS8        2   11.000    1  20 2 1.09000 -13.3604      0.000      0.000      0.00      0.00   1.060   0.940      0.000      0.000      0.000      0.000
    9 BUS9        1  230.00    1  20 0 1.05594 -14.9386     29.500     16.600      0.00    19.00   1.060   0.940      0.000      0.000      0.000      0.000
   10 BUS10       1  230.00    1  20 0 1.05098 -15.0969      9.000      5.800      0.00      0.00   1.060   0.940      0.000      0.000      0.000      0.000
   11 BUS11       1  230.00    1  20 0 1.05685 -14.7906      3.500      1.800      0.00      0.00   1.060   0.940      0.000      0.000      0.000      0.000
   12 BUS12       1  230.00    1  20 0 1.05517 -15.0662      6.100      1.600      0.00      0.00   1.060   0.940      0.000      0.000      0.000      0.000
   13 BUS13       1  230.00    1  20 0 1.05038 -15.1560     13.500      5.800      0.00      0.00   1.060   0.940      0.000      0.000      0.000      0.000
   14 BUS14       1  230.00    1  20 0 1.03553 -16.0336     14.900      5.000      0.00      0.00   1.060   0.940      0.000      0.000      0.000      0.000
-999
BRANCH DATA FOLLOWS
    1    2  1  1   .01938     .05917    .05280     0.0   0.0   0.0     0.0    0.0    0.0
    1    5  1  1   .05403    .22304    .04920     0.0   0.0   0.0     0.0    0.0    0.0
    2    3  1  1   .04699    .19797    .04380     0.0   0.0   0.0     0.0    0.0    0.0
    2    4  1  1   .05811    .17632    .03400     0.0   0.0   0.0     0.0    0.0    0.0
    2    5  1  1   .05695    .17388    .03460     0.0   0.0   0.0     0.0    0.0    0.0
    3    4  1  1   .06701    .17103    .01280     0.0   0.0   0.0     0.0    0.0    0.0
    4    5  1  1   .01335    .04211    0.0       0.0   0.0   0.0     0.0    0.0    0.0
    4    7  1  1   0.0       0.20912    0.0       0.0   0.0   0.0    0.0   .09780 0.0
    4    9  1  1   0.0       0.55618    0.0       0.0   0.0   0.0    0.0   .09690 0.0
    5    6  1  1   0.0       0.25202    0.0       0.0   0.0   0.0    0.0   .09320 0.0
    6   11  1  1   .09498    .19890    .00000     0.0   0.0   0.0     0.0    0.0    0.0
    6   12  1  1   .12291    .25581    .00000     0.0   0.0   0.0     0.0    0.0    0.0
    6   13  1  1   .06615    .13027    .00000     0.0   0.0   0.0     0.0    0.0    0.0
    7    8  1  1   0.0       .17615    0.0       0.0   0.0   0.0    0.0    0.0    0.0    0.0
    7    9  1  1   .11001    .20640    .00000     0.0   0.0   0.0     0.0    0.0    0.0
    9   10  1  1   .03181    .08450    .00000     0.0   0.0   0.0     0.0    0.0    0.0
    9   14  1  1   .12711    .27038    .00000     0.0   0.0   0.0     0.0    0.0    0.0
   10   11  1  1   .08205    .19207    .00000     0.0   0.0   0.0     0.0    0.0    0.0
   12   13  1  1   .22092    .19988    .00000     0.0   0.0   0.0     0.0    0.0    0.0
   13   14  1  1   .17093    .34802    .00000     0.0   0.0   0.0     0.0    0.0    0.0
-999
